# ORCA input generated by ppqm

# Number of cores
%pal nprocs 16 end
# RAM per core
%maxcore 1024

! NumFreq
! B3LYP
! def2-SVP
! D3BJ
! Hirshfeld
! CPCM(water)
! RIJCOSX
! def2/J
! defgrid2
! NMR
! def2/JK


*xyz 0 1
C        -1.14041242     -0.33910732      0.60498953
C         0.03548117      0.57871390      0.37140253
C         1.26838965     -0.24957443      0.43817757
O         1.54126297     -0.86011017      1.51012891
O         2.12687580     -0.36924064     -0.64641876
N        -0.04754465      1.15497552     -0.92084901
O        -1.08590018     -1.33279738     -0.37583604
H        -1.04290559     -0.79731930      1.60259258
H        -2.05649620      0.26308146      0.49806415
H         0.05496848      1.33011208      1.16995710
H         2.60736747     -1.27094446     -0.75120843
H        -0.96414663      1.11626109     -1.38195741
H         0.48973789      2.02272607     -1.06406083
H        -1.78667775     -1.24677642     -1.05498188
